 &SALT_PLUME_PARM01
 CriterionType      = 2,
 SaltPlumeCriterion = 0.021D0,
 SPovershoot        = 1.0D0,
 PlumeMethod        = 1,
 Npower             = 4,
 SPsalFRAC          = 1.0,
# SaltPlumeSplitBasin = .TRUE.,
# Npower(1)          = 4,
# Npower(2)          = 4,
# SPsalFRAC(1)       = 1.0,
# SPsalFRAC(2)       = 0.8,
 SPinflectionPoint  = 0.95,
 SPbrineSconst      = 40.0,
 &

