# ***************
# Open boundaries
# ***************
 &OBCS_PARM01
 OB_Jsouth =   270*24, 900*0,
 OB_Ieast  =   260*0, 2*96, 458*0, 270*125, 270*427,
#
 useOBCSprescribe=.TRUE.,
 OBCS_monSelect = 3,
# >0: use 1rst O. upwind adv-scheme @ OB (=1: only if outflow)
 OBCS_u1_adv_T = 1,
 OBCS_u1_adv_S = 1,
#
#
 OBSsFile='OBSs_1170x50x290_10Jul2017_bl.bin',
 OBStFile='OBSt_1170x50x290_10Jul2017_bl.bin',
 OBSuFile='OBSu_1170x50x290_allzeros.bin',
 OBSvFile='OBSv_1170x50x290_10Jul2017_bl.bin',
#
 OBEsFile='OBEs_1260x50x290_10Jul2017_bl.bin',
 OBEtFile='OBEt_1260x50x290_10Jul2017_bl.bin',
# OBEuFile='OBEu_1260x50x290_v4r3i48iU4218Aug2016.bin',
 OBEuFile='OBEu_1260x50x290_10Jul2017_bl.bin',
 OBEvFile='OBEv_1260x50x290_allzeros.bin',
#
 &
