# Packages
 &PACKAGES
 useEXF         = .TRUE.,
 useCAL         = .TRUE.,
 useKPP         = .TRUE.,
 useDiagnostics = .FALSE.,
 useOBCS        = .TRUE.,
# useProfiles=.TRUE.,
 /
