# SEAICE parameters
 &SEAICE_PARM01
      SEAICEwriteState = .TRUE.,
# Gael's param for pstar
      SEAICEpresH0=2.,
      SEAICEpresPow0=1,
      SEAICEpresPow1=3,
# end Gael's param
#these values give SIconc too low in the Arctic
#switch to Nguyen 2011 values:
#      SEAICE_dryIceAlb   = 0.7,
#      SEAICE_wetIceAlb   = 0.68,
#      SEAICE_drySnowAlb  = 0.84,
#      SEAICE_wetSnowAlb  = 0.77,
      SEAICE_dryIceAlb   = 0.7,
      SEAICE_wetIceAlb   = 0.71,
      SEAICE_drySnowAlb  = 0.87,
      SEAICE_wetSnowAlb  = 0.81,

#      SEAICE_dryIceAlb_south  = 0.58,
#      SEAICE_wetIceAlb_south  = 0.45,
#      SEAICE_drySnowAlb_south = 0.73,
#      SEAICE_wetSnowAlb_south = 0.50,

      SEAICE_strength    = 2.2640e+04,
      SEAICE_waterDrag   = 5.5627,
      SEAICE_drag        = 0.00114,
#      HO                 = 0.6074,
      HO                 = 0.05,
      LSR_ERROR          = 2.e-4,
      SEAICEuseDYNAMICS  = .TRUE.,

      MIN_ATEMP          = -40.,
      MIN_TICE           = -40.,
      SEAICEadvSnow      = .TRUE.,
#advSalt must be off when not using SEAICE_VARIABLE_SALINITY
####      SEAICEadvSalt      = .TRUE.,
      SEAICEadvHeff      = .TRUE.,
      SEAICEadvArea      = .TRUE.,
      SEAICEuseFlooding  = .TRUE.,

      SEAICEadvScheme    = 7,
#      SEAICEadvScheme    = 77,
##      DIFF1              = 0.0,
      SEAICE_multDim = 7,

#ian remove begin
#if      SEAICE_salinity    = 0.3,
#if      SEAICE_freeze      = -1.7348,
#if      SEAICE_availHeatFrac = 0.1,
#if      ICE2WATR           = 0.92D0,
#ian remove end

#ian new begin
      SEAICE_area_reg = 0.15,
      SEAICE_area_floor = 0.00001,
      SEAICE_hice_reg = 0.1,
      IMAX_TICE = 6,
      SEAICE_EPS = 1.E-8,
      SEAICE_area_max = 0.998,
#ian new end

#ph new begin
      SEAICE_salt0 = 4.0,
      SEAICE_doOpenWaterGrowth = .TRUE.,
      SEAICE_doOpenWaterMelt = .TRUE.,
      SEAICE_areaLossFormula = 1,
# lessthan/equal 1 m / 1200 sec
      SEAICE_mcPheePiston = 0.0008,
# lessthan/equal 1 m / 180 sec
#      SEAICE_mcPheePiston = 0.005,
# lessthan/equal 1 m / 150 sec
#      SEAICE_mcPheePiston = 0.006,
# lessthan/equal 1 m / 120 sec
#      SEAICE_mcPheePiston = 0.008,
# lessthan/equal 1 m / 90 sec
#      SEAICE_mcPheePiston = 0.01,
# lessthan/equal 1 m / 60 sec
#      SEAICE_mcPheePiston = 0.016,
# lessthan/equal 1 m / 45 sec
#      SEAICE_mcPheePiston = 0.022,
# lessthan/equal 1 m / 30 sec
#      SEAICE_mcPheePiston = 0.033,
# lessthan/equal 1 m / 20 sec
#      SEAICE_mcPheePiston = 0.049,
# lessthan/equal 1 m / 10 sec
#      SEAICE_mcPheePiston = 0.099,
#ph new end

#      SEAICE_frazilFrac = 0.1,
      SEAICEuseMetricTerms = .TRUE.,
      SEAICE_no_slip     = .FALSE.,
#      AreaFile = '',
#      HeffFile = '',
      AreaFile = 'AREAaste_Jan2002_1080x4140.bin',
      HeffFile = 'HEFFaste_Jan2002_1080x4140.bin',
      HsnowFile = 'HSNOWaste_Jan2002_1080x4140.bin',
 &
#
 &SEAICE_PARM02
#      SEAICE_cutoff_area = 0.1499,
#      SEAICE_cutoff_heff = 0.,
 /
