# SEAICE parameters
 &SEAICE_PARM01
      SEAICEpresH0=2.,
      SEAICEpresPow0=1,
      SEAICEpresPow1=2.0,
      SEAICE_dryIceAlb   = 0.7,
#
      SEAICE_wetIceAlb   = 0.68,
      SEAICE_drySnowAlb  = 0.84,
      SEAICE_wetSnowAlb  = 0.77,
#
      SEAICE_strength    = 2.2640e+04,
      SEAICE_waterDrag   = 5.5627,
#
      SEAICE_drag        = 0.00114,
      HO                 = 0.6074,
      LSR_ERROR          = 2.e-4,
      SEAICEuseDYNAMICS  = .TRUE.,
#
      MIN_ATEMP          = -40.,
      MIN_TICE           = -40.,
      SEAICEadvSnow      = .TRUE.,
#
      SEAICEuseFlooding  = .TRUE.,
      SEAICEadvScheme    = 33,
      SEAICE_multDim = 7,
      SEAICE_useMultDimSnow = .FALSE.,
#
      SEAICE_area_reg = 0.15,
      SEAICE_area_floor = 0.00001,
      SEAICE_hice_reg = 0.1,
      IMAX_TICE = 6,
      SEAICE_EPS = 1.E-8,
      SEAICE_area_max = 0.998,
#
      SEAICE_salt0 = 4.0,
      SEAICE_doOpenWaterGrowth = .TRUE.,
      SEAICE_doOpenWaterMelt = .TRUE.,
      SEAICE_areaLossFormula = 1,
## 10 m / 1200 sec
      SEAICE_mcPheePiston = 0.005,
#
      SEAICEuseMetricTerms = .TRUE.,
      SEAICE_no_slip     = .FALSE.,
      AreaFile           = 'AREAaste_Jan2002_90x450.bin',
      HsnowFile          = 'HSNOWaste_Jan2002_90x450.bin',
      HeffFile           = 'HEFFaste_Jan2002_90x450.bin',
 /
#
 &SEAICE_PARM02
      SEAICE_cutoff_area = 0.1499,
      SEAICE_cutoff_heff = 0.,
 /

