# Packages
 &PACKAGES
 useOBCS        = .TRUE.,
 useEXF         = .TRUE.,
 useSEAICE      = .TRUE.,
 useKPP         = .TRUE.,
 useProfiles    = .FALSE.,
 useDiagnostics = .FALSE.,
 useCal         = .TRUE.,
 useGMREDI      = .TRUE.,
 useSALT_PLUME  = .TRUE.,
############################
# useAUTODIFF    = .TRUE.,
# useECCO        = .FALSE.,
# useCTRL        = .TRUE.,
# useSMOOTH      = .TRUE.,
# useLAYERS      = .FALSE.,
# useGrdchk      = .FALSE.,
 /
