# Packages
 &PACKAGES
 useOBCS        = .TRUE.,
 useEXF         = .TRUE.,
 useGMREDI      = .TRUE.,
 useSEAICE      = .TRUE.,
 useKPP         = .TRUE.,
 useSALT_PLUME  = .TRUE.,
 useDiagnostics = .FALSE.,
 useECCO        = .FALSE.,
 useCTRL        = .TRUE.,
 useProfiles    = .FALSE.,
#useAUTODIFF    = .TRUE.,
 useSMOOTH      = .TRUE.,
 useCAL         = .TRUE.,
#
# useGrdchk=.FALSE.,
 /
